Info: SIMULATION PARAMETERS:
Info: TIMESTEP               2
Info: NUMBER OF STEPS        0
Info: STEPS PER CYCLE        10
Info: PERIODIC CELL BASIS 1  74 0 0
Info: PERIODIC CELL BASIS 2  0 53 0
Info: PERIODIC CELL BASIS 3  0 0 87
Info: PERIODIC CELL CENTER   4.31 0.9 13.4
Info: WRAPPING ALL CLUSTERS AROUND PERIODIC BOUNDARIES ON OUTPUT.
Info: FIRST LDB TIMESTEP     50
Info: LAST LDB TIMESTEP     -1
Info: HOM BACKGROUND SCALING 1
Info: PME BACKGROUND SCALING 1
Info: MIN ATOMS PER PATCH    40
Info: INITIAL TEMPERATURE    310
Info: CENTER OF MASS MOVING INITIALLY? NO
Info: DIELECTRIC             1
Info: EXCLUDE                SCALED ONE-FOUR
Info: 1-4 ELECTROSTATICS SCALED BY 1
Info: MODIFIED 1-4 VDW PARAMETERS WILL BE USED
Info: DCD FILENAME           af2o_wb.dcd
Info: DCD FREQUENCY          250
Info: DCD FIRST STEP         250
Info: DCD FILE WILL CONTAIN UNIT CELL DATA
Info: XST FILENAME           af2o_wb.xst
Info: XST FREQUENCY          250
Info: NO VELOCITY DCD OUTPUT
Info: NO FORCE DCD OUTPUT
Info: OUTPUT FILENAME        af2o_wb
Info: BINARY OUTPUT FILES WILL BE USED
Info: RESTART FILENAME       af2o_wb.restart
Info: RESTART FREQUENCY      500
Info: BINARY RESTART FILES WILL BE USED
Info: SWITCHING ACTIVE
Info: SWITCHING ON           10
Info: SWITCHING OFF          12
Info: PAIRLIST DISTANCE      14
Info: PAIRLIST SHRINK RATE   0.01
Info: PAIRLIST GROW RATE     0.01
Info: PAIRLIST TRIGGER       0.3
Info: PAIRLISTS PER CYCLE    2
Info: PAIRLISTS ENABLED
Info: MARGIN                 0.495
Info: HYDROGEN GROUP CUTOFF  2.5
Info: PATCH DIMENSION        16.995
Info: ENERGY OUTPUT STEPS    100
Info: CROSSTERM ENERGY INCLUDED IN DIHEDRAL
Info: TIMING OUTPUT STEPS    1000
Info: PRESSURE OUTPUT STEPS  100
Info: LANGEVIN DYNAMICS ACTIVE
Info: LANGEVIN TEMPERATURE   310
Info: LANGEVIN USING BBK INTEGRATOR
Info: LANGEVIN DAMPING COEFFICIENT IS 1 INVERSE PS
Info: LANGEVIN DYNAMICS NOT APPLIED TO HYDROGENS
Info: LANGEVIN PISTON PRESSURE CONTROL ACTIVE
Info:        TARGET PRESSURE IS 1.01325 BAR
Info:     OSCILLATION PERIOD IS 100 FS
Info:             DECAY TIME IS 50 FS
Info:     PISTON TEMPERATURE IS 310 K
Info:       PRESSURE CONTROL IS GROUP-BASED
Info:    INITIAL STRAIN RATE IS 0 0 0
Info:       CELL FLUCTUATION IS ISOTROPIC
Info: PARTICLE MESH EWALD (PME) ACTIVE
Info: PME TOLERANCE               1e-06
Info: PME EWALD COEFFICIENT       0.257952
Info: PME INTERPOLATION ORDER     4
Info: PME GRID DIMENSIONS         80 54 88
Info: PME MAXIMUM GRID SPACING    1
Info: FULL ELECTROSTATIC EVALUATION FREQUENCY      2
Info: USING VERLET I (r-RESPA) MTS SCHEME.
Info: C1 SPLITTING OF LONG RANGE ELECTROSTATICS
Info: PLACING ATOMS IN PATCHES BY HYDROGEN GROUPS
Info: RIGID BONDS TO HYDROGEN : ALL
Info:         ERROR TOLERANCE : 1e-08
Info:          MAX ITERATIONS : 100
Info: RIGID WATER USING SETTLE ALGORITHM
Info: RANDOM NUMBER SEED     1666055634
Info: USE HYDROGEN BONDS?    NO
Info: COORDINATE PDB         af2o_wb.pdb
Info: STRUCTURE FILE         af2o_wb.psf
Info: PARAMETER file: CHARMM format!
Info: PARAMETERS             par_all27_prot_lipid.inp
Info: USING ARITHMETIC MEAN TO COMBINE L-J SIGMA PARAMETERS
Info: SUMMARY OF PARAMETERS:
Info: 180 BONDS
Info: 447 ANGLES
Info: 566 DIHEDRAL
Info: 46 IMPROPER
Info: 6 CROSSTERM
Info: 119 VDW
Info: 0 VDW_PAIRS
Info: 0 NBTHOLE_PAIRS
Info: STRUCTURE SUMMARY:
Info: 30303 ATOMS
Info: 21353 BONDS
Info: 15087 ANGLES
Info: 8988 DIHEDRALS
Info: 594 IMPROPERS
Info: 219 CROSSTERMS
Info: 0 EXCLUSIONS
Info: 28615 RIGID BONDS
Info: 62294 DEGREES OF FREEDOM
Info: 10682 HYDROGEN GROUPS
Info: 4 ATOMS IN LARGEST HYDROGEN GROUP
Info: 10682 MIGRATION GROUPS
Info: 4 ATOMS IN LARGEST MIGRATION GROUP
Info: TOTAL MASS = 185930 amu
Info: TOTAL CHARGE = 5 e
Info: MASS DENSITY = 0.904862 g/cm^3
Info: ATOM DENSITY = 0.0888094 atoms/A^3
Info: ADDED 45247 IMPLICIT EXCLUSIONS
Info: NONBONDED TABLE R-SQUARED SPACING: 0.0625
Info: NONBONDED TABLE SIZE: 769 POINTS
Info: REMOVING COM VELOCITY 0.0104338 0.0655464 0.0655689
Info: Updated CUDA force table with 4096 elements.
Info: Updated CUDA LJ table with 119 x 119 elements.
Info: Found 286 unique exclusion lists needing 908 bytes
TCL: Minimizing for 1000 steps
ETITLE: TS BOND ANGLE DIHED IMPRP ELECT VDW BOUNDARY MISC KINETIC TOTAL TEMP POTENTIAL TOTAL3 TEMPAVG PRESSURE GPRESSURE VOLUME PRESSAVG GPRESSAVG
ENERGY: 0 390.3610 1207.3970 692.0942 31.0317 -87613.0417 26184.6022 0.0000 0.0000 0.0000 -59107.5555 0.0000 -59107.5555 -59107.5555 0.0000 -150.3034 -27719.9445 341214.0000 -150.3034 -27719.9445
ENERGY: 200 271.5754 647.9088 658.0643 25.8024 -112372.0711 8331.7816 0.0000 0.0000 0.0000 -102436.9387 0.0000 -102436.9387 -102436.9387 0.0000 -60.8701 -19082.0322 341214.0000 -60.8701 -19082.0322
ENERGY: 400 189.1898 630.0816 661.7024 21.5733 -118130.2816 10056.0945 0.0000 0.0000 0.0000 -106571.6400 0.0000 -106571.6400 -106571.6400 0.0000 -52.0370 -20153.4903 341214.0000 -52.0370 -20153.4903
ENERGY: 600 188.1574 613.8295 665.0757 20.3578 -121175.6611 11533.9988 0.0000 0.0000 0.0000 -108154.2421 0.0000 -108154.2421 -108154.2421 0.0000 -49.0974 -20694.0093 341214.0000 -49.0974 -20694.0093
ENERGY: 800 177.7785 608.2945 657.8617 19.4289 -122641.7411 11839.8824 0.0000 0.0000 0.0000 -109338.4952 0.0000 -109338.4952 -109338.4952 0.0000 -47.2776 -20972.0753 341214.0000 -47.2776 -20972.0753
ENERGY: 1000 184.2570 609.4596 652.8083 20.0460 -123391.7505 11892.4570 0.0000 0.0000 0.0000 -110032.7225 0.0000 -110032.7225 -110032.7225 0.0000 -45.8768 -21122.9601 341214.0000 -45.8768 -21122.9601
TCL: Running for 25000 steps
ETITLE: TS BOND ANGLE DIHED IMPRP ELECT VDW BOUNDARY MISC KINETIC TOTAL TEMP POTENTIAL TOTAL3 TEMPAVG PRESSURE GPRESSURE VOLUME PRESSAVG GPRESSAVG
ENERGY: 1000 184.2570 609.4596 652.8083 20.0460 -123391.7505 11892.4570 0.0000 0.0000 19269.4487 -90763.2738 311.3246 -110032.7225 -90775.7412 311.3246 -3042.3223 -3011.8071 341214.0000 -3042.3223 -3011.8071
ENERGY: 6000 703.1879 1903.0860 894.7483 111.9624 -103242.5368 8127.9394 0.0000 0.0000 18890.9601 -72610.6527 305.2096 -91501.6128 -72546.8598 304.9937 -182.4767 -151.9388 295958.1844 -0.6274 -0.5956
ENERGY: 11000 652.5904 1909.9955 905.4552 122.9314 -102254.6575 7902.3322 0.0000 0.0000 19072.8754 -71688.4774 308.1487 -90761.3528 -71622.6492 308.0549 81.7901 116.9441 298744.0138 -5.6865 -5.4496
ENERGY: 16000 700.5497 1929.9228 857.8071 122.8646 -102351.2705 7920.4403 0.0000 0.0000 19246.7440 -71572.9420 310.9578 -90819.6860 -71504.0759 310.2577 -159.3392 -127.7784 300133.9135 20.1977 19.8480
ENERGY: 21000 646.4024 1872.4349 874.2146 118.8680 -102251.4319 7976.9148 0.0000 0.0000 19125.7613 -71636.8358 309.0031 -90762.5971 -71571.8773 308.7406 -95.4179 -63.5231 299413.7137 3.0824 3.1717
ENERGY: 26000 706.6584 1925.2682 889.6456 131.2690 -102112.8821 7828.1119 0.0000 0.0000 19141.5320 -71490.3972 309.2579 -90631.9292 -71423.4530 310.1478 -276.8102 -245.5112 299737.8947 -23.5334 -23.7891
